VERS 231205 32 20120530 20120530
MODE SEQ
NAME 
AUTH 
IWDP 0
PFIL 0 0 0
LANG 0
UNIT MM X W X CM MR CPMM
ENPD 0
ENVD 20 1 0
GFAC 0 0
GCAT SCHOTT 
RAIM 0 0 1 1 0 0 0 0 0 1
PUSH 0 0 0 0 0 0
SDMA 0 1 0
OMMA 1 1
FTYP 0 0 1 1 0 0 0 1
ROPD 2
HYPR 0
PICB 1
XFLN 0
YFLN 0
FWGN 1
VDXN 0
VDYN 0
VCXN 0
VCYN 0
VANN 0
WAVM 1 0.55000000000000004 1
WAVM 2 0.55000000000000004 1
WAVM 3 0.55000000000000004 1
WAVM 4 0.55000000000000004 1
WAVM 5 0.55000000000000004 1
WAVM 6 0.55000000000000004 1
WAVM 7 0.55000000000000004 1
WAVM 8 0.55000000000000004 1
WAVM 9 0.55000000000000004 1
WAVM 10 0.55000000000000004 1
WAVM 11 0.55000000000000004 1
WAVM 12 0.55000000000000004 1
WAVM 13 0.55000000000000004 1
WAVM 14 0.55000000000000004 1
WAVM 15 0.55000000000000004 1
WAVM 16 0.55000000000000004 1
WAVM 17 0.55000000000000004 1
WAVM 18 0.55000000000000004 1
WAVM 19 0.55000000000000004 1
WAVM 20 0.55000000000000004 1
WAVM 21 0.55000000000000004 1
WAVM 22 0.55000000000000004 1
WAVM 23 0.55000000000000004 1
WAVM 24 0.55000000000000004 1
PWAV 1
POLS 1 0 1 0 0 1 0
GLRS 1 0
GSTD 0 100.000 100.000 100.000 100.000 100.000 100.000 0 1 1 0 0 1 1 1 1 1 1
NSCD 100 500 0 0.001 10 9.9999999999999995e-07 0 0 0 0 0 0 1000000 0 2
COFN QF "COATING.DAT" "SCATTER_PROFILE.DAT" "ABG_DATA.DAT" "PROFILE.GRD"
COFN COATING.DAT SCATTER_PROFILE.DAT ABG_DATA.DAT PROFILE.GRD
LUID 13
EERA 0 0 0 10
SURF 0
  SSID 0
  TYPE STANDARD
  FIMP 
  CURV 0.0 0 0 0 0 ""
  HIDE 0 0 0 0 0 0 0 0 0 0 0 0
  MIRR 2 0
  DISZ INFINITY
  DIAM 0 0 0 0 1 ""
  MEMA 0 0 0 0 1 ""
  POPS 0 0 0 0 0 0 0 0 1 1 1 1 0 0 0 0
SURF 1
  SSID 1
  STOP
  TYPE STANDARD
  FIMP 
  CURV 3.030303030303030387E-02 0 0 0 0 ""
  HIDE 0 0 0 0 0 0 0 0 0 0 0 0
  MIRR 2 0
  DISZ 15
  GLAS N-BK7 0 0 1.5 40 0 0 0 0 0 0 
  DIAM 15 1 0 0 1 ""
  MEMA 15 0 0 0 1 ""
  POPS 0 0 0 0 0 0 0 0 1 1 1 1 0 0 0 0
  FLAP 0 15 0
SURF 2
  SSID 5
  TYPE STANDARD
  FIMP 
  CURV 3.021148036253776432E-03 0 0 0 0 ""
  HIDE 0 0 0 0 0 0 0 0 0 0 0 0
  MIRR 2 0
  SLAB 3
  DISZ 15
  DIAM 15 1 0 0 1 ""
  MEMA 15 0 0 0 1 ""
  POPS 0 0 0 0 0 0 0 0 1 1 1 1 0 0 0 0
  FLAP 0 15 0
SURF 3
  SSID 12
  TYPE STANDARD
  FIMP 
  CURV 2.857142857142857054E-02 0 0 0 0 ""
  HIDE 0 0 0 0 0 0 0 0 0 0 0 0
  MIRR 2 0
  DISZ 15
  GLAS ___BLANK 1 0 1.5168000344999999 0 0 0 0 0 0 0 
  DIAM 15 1 0 0 1 ""
  MEMA 15 0 0 0 1 ""
  POPS 0 0 0 0 0 0 0 0 1 1 1 1 0 0 0 0
  FLAP 0 15 0
SURF 4
  SSID 13
  TYPE STANDARD
  FIMP 
  CURV -1.063829787234042527E-02 0 0 0 0 ""
  HIDE 0 0 0 0 0 0 0 0 0 0 0 0
  MIRR 2 0
  SLAB 3
  DISZ 15
  DIAM 15 1 0 0 1 ""
  MEMA 15 0 0 0 1 ""
  POPS 0 0 0 0 0 0 0 0 1 1 1 1 0 0 0 0
  FLAP 0 15 0
SURF 5
  SSID 10
  TYPE STANDARD
  FIMP 
  CURV -3.333333333333333287E-02 0 0 0 0 ""
  HIDE 0 0 0 0 0 0 0 0 0 0 0 0
  MIRR 2 0
  DISZ 15
  GLAS ___BLANK 1 0 1.5168000344999999 0 0 0 0 0 0 0 
  DIAM 15 1 0 0 1 ""
  MEMA 15 0 0 0 1 ""
  POPS 0 0 0 0 0 0 0 0 1 1 1 1 0 0 0 0
  FLAP 0 15 0
SURF 6
  SSID 11
  TYPE STANDARD
  FIMP 
  CURV 2.000000000000000042E-02 0 0 0 0 ""
  HIDE 0 0 0 0 0 0 0 0 0 0 0 0
  MIRR 2 0
  SLAB 3
  DISZ 15
  DIAM 15 1 0 0 1 ""
  MEMA 15 0 0 0 1 ""
  POPS 0 0 0 0 0 0 0 0 1 1 1 1 0 0 0 0
  FLAP 0 15 0
SURF 7
  SSID 3
  TYPE STANDARD
  FIMP 
  CURV 0.0 0 0 0 0 ""
  HIDE 0 0 0 0 0 0 0 0 0 0 0 0
  MIRR 2 0
  SLAB 1
  DISZ 0
  DIAM 0 0 0 0 1 ""
  MEMA 0 0 0 0 1 ""
  POPS 0 0 0 0 0 0 0 0 1 1 1 1 0 0 0 0
SURF 8
  SSID 2
  TYPE STANDARD
  FIMP 
  CURV 0.0 0 0 0 0 ""
  HIDE 0 0 0 0 0 0 0 0 0 0 0 0
  MIRR 2 0
  DISZ 0
  DIAM 0 0 0 0 1 ""
  MEMA 0 0 0 0 1 ""
  POPS 0 0 0 0 0 0 0 0 1 1 1 1 0 0 0 0
BLNK 
TOL TOFF   0   0 0.0000000000000000E+00 0.0000000000000000E+00   0 0 0 0 0
MNUM 1 1
MOFF   0   1 "" 0 0 0 1 1 0 0.0 "" 0
